# Name file for MODFLOW-NWT, generated by Flopy version 3.3.0.
#xll:0.0; yll:0.0; rotation:0.0; units:meters; lenuni:2; start_datetime:1-1-1970
LIST               2  ani_1500.list
DIS               11  ani_1500.dis
BAS6              13  ani_1500.bas
NWT               32  ani_1500.nwt
UPW               31  ani_1500.upw
RIV               18  ani_1500.riv
RCH               19  ani_1500.rch
OC                14  ani_1500.oc
DATA(BINARY)      51  ani_1500.hds REPLACE
