# DIS package for  MODFLOW-NWT, generated by Flopy.
         1        87        51         1         4         2
  0
CONSTANT    1.500000E+03                           #delr                          
CONSTANT    1.500000E+03                           #delc                          
INTERNAL               1  (51E15.6) -1 #model_top                     
  -9.999000E+03  -9.999000E+03  -9.999000E+03  -9.999000E+03  -9.999000E+03  -9.999000E+03  -9.999000E+03  -9.999000E+03  -9.999000E+03  -9.999000E+03  -9.999000E+03  -9.999000E+03  -9.999000E+03  -9.999000E+03  -9.999000E+03  -9.999000E+03  -9.999000E+03  -9.999000E+03  -9.999000E+03  -9.999000E+03  -9.999000E+03  -9.999000E+03  -9.999000E+03  -9.999000E+03  -9.999000E+03  -9.999000E+03  -9.999000E+03  -9.999000E+03  -9.999000E+03  -9.999000E+03  -9.999000E+03  -9.999000E+03  -9.999000E+03  -9.999000E+03  -9.999000E+03  -9.999000E+03  -9.999000E+03  -9.999000E+03  -9.999000E+03  -9.999000E+03  -9.999000E+03  -9.999000E+03  -9.999000E+03  -9.999000E+03  -9.999000E+03  -9.999000E+03   3.632638E+03   3.675627E+03   3.850490E+03   3.888782E+03  -9.999000E+03
  -9.999000E+03  -9.999000E+03  -9.999000E+03  -9.999000E+03  -9.999000E+03  -9.999000E+03  -9.999000E+03  -9.999000E+03  -9.999000E+03  -9.999000E+03  -9.999000E+03  -9.999000E+03  -9.999000E+03  -9.999000E+03  -9.999000E+03  -9.999000E+03  -9.999000E+03  -9.999000E+03  -9.999000E+03  -9.999000E+03  -9.999000E+03  -9.999000E+03  -9.999000E+03  -9.999000E+03  -9.999000E+03  -9.999000E+03  -9.999000E+03  -9.999000E+03  -9.999000E+03  -9.999000E+03  -9.999000E+03  -9.999000E+03  -9.999000E+03  -9.999000E+03  -9.999000E+03  -9.999000E+03  -9.999000E+03  -9.999000E+03  -9.999000E+03  -9.999000E+03  -9.999000E+03  -9.999000E+03  -9.999000E+03  -9.999000E+03  -9.999000E+03   3.813154E+03   3.747292E+03   3.651085E+03   3.894312E+03   3.892302E+03   3.830276E+03
  -9.999000E+03  -9.999000E+03  -9.999000E+03  -9.999000E+03  -9.999000E+03  -9.999000E+03  -9.999000E+03  -9.999000E+03  -9.999000E+03  -9.999000E+03  -9.999000E+03  -9.999000E+03  -9.999000E+03  -9.999000E+03  -9.999000E+03  -9.999000E+03  -9.999000E+03  -9.999000E+03  -9.999000E+03  -9.999000E+03  -9.999000E+03  -9.999000E+03  -9.999000E+03  -9.999000E+03  -9.999000E+03  -9.999000E+03  -9.999000E+03  -9.999000E+03  -9.999000E+03  -9.999000E+03  -9.999000E+03  -9.999000E+03  -9.999000E+03  -9.999000E+03  -9.999000E+03  -9.999000E+03  -9.999000E+03   3.772605E+03   3.853171E+03  -9.999000E+03  -9.999000E+03  -9.999000E+03  -9.999000E+03   3.778215E+03   3.826211E+03   3.776463E+03   3.651356E+03   3.570803E+03   3.588820E+03   3.889428E+03  -9.999000E+03
  -9.999000E+03  -9.999000E+03  -9.999000E+03  -9.999000E+03  -9.999000E+03  -9.999000E+03  -9.999000E+03  -9.999000E+03  -9.999000E+03  -9.999000E+03  -9.999000E+03  -9.999000E+03  -9.999000E+03  -9.999000E+03  -9.999000E+03  -9.999000E+03  -9.999000E+03  -9.999000E+03  -9.999000E+03  -9.999000E+03  -9.999000E+03  -9.999000E+03  -9.999000E+03  -9.999000E+03  -9.999000E+03  -9.999000E+03  -9.999000E+03  -9.999000E+03  -9.999000E+03  -9.999000E+03  -9.999000E+03  -9.999000E+03  -9.999000E+03  -9.999000E+03  -9.999000E+03  -9.999000E+03   3.793950E+03   3.902238E+03   3.655768E+03   3.422389E+03   3.627814E+03   3.622021E+03   3.640252E+03   3.546020E+03   3.827903E+03   3.889201E+03   3.757768E+03   3.651532E+03   3.436587E+03   3.869870E+03   3.739803E+03
  -9.999000E+03  -9.999000E+03  -9.999000E+03  -9.999000E+03  -9.999000E+03  -9.999000E+03  -9.999000E+03  -9.999000E+03  -9.999000E+03  -9.999000E+03  -9.999000E+03  -9.999000E+03  -9.999000E+03  -9.999000E+03  -9.999000E+03  -9.999000E+03  -9.999000E+03  -9.999000E+03  -9.999000E+03  -9.999000E+03  -9.999000E+03  -9.999000E+03  -9.999000E+03  -9.999000E+03  -9.999000E+03  -9.999000E+03  -9.999000E+03  -9.999000E+03  -9.999000E+03  -9.999000E+03  -9.999000E+03  -9.999000E+03  -9.999000E+03  -9.999000E+03  -9.999000E+03   3.859824E+03   3.902192E+03   3.745283E+03   3.416339E+03   3.522071E+03   3.661921E+03   3.443219E+03   3.359133E+03   3.520509E+03   3.831441E+03   3.737948E+03   3.800748E+03   3.671509E+03   3.413263E+03   3.821166E+03   3.940976E+03
  -9.999000E+03  -9.999000E+03  -9.999000E+03  -9.999000E+03  -9.999000E+03  -9.999000E+03  -9.999000E+03  -9.999000E+03  -9.999000E+03  -9.999000E+03  -9.999000E+03  -9.999000E+03  -9.999000E+03  -9.999000E+03  -9.999000E+03  -9.999000E+03  -9.999000E+03  -9.999000E+03  -9.999000E+03  -9.999000E+03  -9.999000E+03  -9.999000E+03  -9.999000E+03  -9.999000E+03  -9.999000E+03  -9.999000E+03  -9.999000E+03  -9.999000E+03  -9.999000E+03  -9.999000E+03  -9.999000E+03  -9.999000E+03  -9.999000E+03  -9.999000E+03   3.702173E+03   3.942036E+03   3.794336E+03   3.425897E+03   3.261960E+03   3.667076E+03   3.636410E+03   3.254943E+03   3.503509E+03   3.584610E+03   3.867748E+03   3.585688E+03   3.394472E+03   3.334645E+03   3.587455E+03   3.954397E+03   3.918528E+03
  -9.999000E+03  -9.999000E+03  -9.999000E+03  -9.999000E+03  -9.999000E+03  -9.999000E+03  -9.999000E+03  -9.999000E+03  -9.999000E+03  -9.999000E+03  -9.999000E+03  -9.999000E+03  -9.999000E+03  -9.999000E+03  -9.999000E+03  -9.999000E+03  -9.999000E+03  -9.999000E+03  -9.999000E+03  -9.999000E+03  -9.999000E+03  -9.999000E+03  -9.999000E+03  -9.999000E+03  -9.999000E+03  -9.999000E+03  -9.999000E+03  -9.999000E+03  -9.999000E+03  -9.999000E+03  -9.999000E+03  -9.999000E+03  -9.999000E+03  -9.999000E+03   3.501890E+03   3.716371E+03   3.670356E+03   3.472020E+03   3.277914E+03   3.639345E+03   3.368825E+03   3.321216E+03   3.721453E+03   3.770417E+03   3.665424E+03   3.566011E+03   3.545446E+03   3.132200E+03   3.692420E+03   3.926329E+03  -9.999000E+03
  -9.999000E+03  -9.999000E+03  -9.999000E+03  -9.999000E+03  -9.999000E+03  -9.999000E+03  -9.999000E+03  -9.999000E+03  -9.999000E+03  -9.999000E+03  -9.999000E+03  -9.999000E+03  -9.999000E+03  -9.999000E+03  -9.999000E+03  -9.999000E+03  -9.999000E+03  -9.999000E+03  -9.999000E+03  -9.999000E+03  -9.999000E+03  -9.999000E+03  -9.999000E+03  -9.999000E+03  -9.999000E+03  -9.999000E+03  -9.999000E+03  -9.999000E+03  -9.999000E+03  -9.999000E+03  -9.999000E+03  -9.999000E+03  -9.999000E+03  -9.999000E+03   3.751491E+03   3.488608E+03   3.291167E+03   3.185570E+03   3.289597E+03   3.565679E+03   3.196464E+03   3.359220E+03   3.847466E+03   3.770996E+03   3.900141E+03   3.739606E+03   3.178459E+03   3.150850E+03   3.396128E+03   3.802244E+03   3.861390E+03
  -9.999000E+03  -9.999000E+03  -9.999000E+03  -9.999000E+03  -9.999000E+03  -9.999000E+03  -9.999000E+03  -9.999000E+03  -9.999000E+03  -9.999000E+03  -9.999000E+03  -9.999000E+03  -9.999000E+03  -9.999000E+03  -9.999000E+03  -9.999000E+03  -9.999000E+03  -9.999000E+03  -9.999000E+03  -9.999000E+03  -9.999000E+03  -9.999000E+03  -9.999000E+03  -9.999000E+03  -9.999000E+03  -9.999000E+03  -9.999000E+03  -9.999000E+03  -9.999000E+03  -9.999000E+03  -9.999000E+03  -9.999000E+03   3.811404E+03   3.881305E+03   3.751804E+03   3.703704E+03   3.550930E+03   3.256392E+03   3.328300E+03   3.537377E+03   3.137470E+03   3.254219E+03   3.631087E+03   3.517467E+03   3.553926E+03   3.227020E+03   3.140858E+03   3.312745E+03   3.652980E+03   3.760397E+03   3.798015E+03
  -9.999000E+03  -9.999000E+03  -9.999000E+03  -9.999000E+03  -9.999000E+03  -9.999000E+03  -9.999000E+03  -9.999000E+03  -9.999000E+03  -9.999000E+03  -9.999000E+03  -9.999000E+03  -9.999000E+03  -9.999000E+03  -9.999000E+03  -9.999000E+03  -9.999000E+03  -9.999000E+03  -9.999000E+03  -9.999000E+03  -9.999000E+03  -9.999000E+03  -9.999000E+03  -9.999000E+03  -9.999000E+03  -9.999000E+03  -9.999000E+03  -9.999000E+03  -9.999000E+03  -9.999000E+03  -9.999000E+03   3.831948E+03   3.864689E+03   3.646111E+03   3.335937E+03   3.457282E+03   3.219100E+03   3.068481E+03   2.994311E+03   3.139130E+03   3.255714E+03   3.045726E+03   3.087865E+03   3.011242E+03   3.088371E+03   3.093418E+03   3.593907E+03   3.772118E+03   3.623106E+03   3.815000E+03   3.822688E+03
  -9.999000E+03  -9.999000E+03  -9.999000E+03  -9.999000E+03  -9.999000E+03  -9.999000E+03  -9.999000E+03  -9.999000E+03  -9.999000E+03  -9.999000E+03  -9.999000E+03  -9.999000E+03  -9.999000E+03  -9.999000E+03  -9.999000E+03  -9.999000E+03  -9.999000E+03  -9.999000E+03  -9.999000E+03  -9.999000E+03  -9.999000E+03  -9.999000E+03  -9.999000E+03  -9.999000E+03  -9.999000E+03  -9.999000E+03  -9.999000E+03  -9.999000E+03  -9.999000E+03  -9.999000E+03  -9.999000E+03   3.871971E+03   3.870405E+03   3.616611E+03   3.241633E+03   3.229326E+03   3.282321E+03   3.527804E+03   3.229816E+03   3.052864E+03   2.923550E+03   2.878892E+03   3.122466E+03   3.245703E+03   3.385975E+03   3.449020E+03   3.308409E+03   3.812730E+03   3.676103E+03   3.867728E+03   3.762194E+03
  -9.999000E+03  -9.999000E+03  -9.999000E+03  -9.999000E+03  -9.999000E+03  -9.999000E+03  -9.999000E+03  -9.999000E+03  -9.999000E+03  -9.999000E+03  -9.999000E+03  -9.999000E+03  -9.999000E+03  -9.999000E+03  -9.999000E+03  -9.999000E+03  -9.999000E+03  -9.999000E+03  -9.999000E+03  -9.999000E+03  -9.999000E+03  -9.999000E+03  -9.999000E+03  -9.999000E+03  -9.999000E+03  -9.999000E+03  -9.999000E+03  -9.999000E+03  -9.999000E+03   3.954567E+03   3.779393E+03   3.742235E+03   3.514137E+03   3.382002E+03   3.531124E+03   3.618892E+03   3.646703E+03   3.534790E+03   3.558581E+03   3.528135E+03   3.044764E+03   3.153662E+03   3.631099E+03   3.667140E+03   3.640816E+03   3.743983E+03   3.418154E+03   3.817063E+03   3.768926E+03   3.801673E+03  -9.999000E+03
  -9.999000E+03  -9.999000E+03  -9.999000E+03  -9.999000E+03  -9.999000E+03  -9.999000E+03  -9.999000E+03  -9.999000E+03  -9.999000E+03  -9.999000E+03  -9.999000E+03  -9.999000E+03  -9.999000E+03  -9.999000E+03  -9.999000E+03  -9.999000E+03  -9.999000E+03  -9.999000E+03  -9.999000E+03  -9.999000E+03  -9.999000E+03  -9.999000E+03  -9.999000E+03  -9.999000E+03  -9.999000E+03  -9.999000E+03  -9.999000E+03  -9.999000E+03   3.698517E+03   3.829316E+03   3.679076E+03   3.834519E+03   3.534994E+03   3.778855E+03   3.750471E+03   3.682722E+03   3.727316E+03   3.470838E+03   3.737854E+03   3.666007E+03   3.091422E+03   3.249695E+03   3.661695E+03   3.877626E+03   3.842452E+03   3.637690E+03   3.538487E+03   3.852696E+03   3.825836E+03  -9.999000E+03  -9.999000E+03
  -9.999000E+03  -9.999000E+03  -9.999000E+03  -9.999000E+03  -9.999000E+03  -9.999000E+03  -9.999000E+03  -9.999000E+03  -9.999000E+03  -9.999000E+03  -9.999000E+03  -9.999000E+03  -9.999000E+03  -9.999000E+03  -9.999000E+03  -9.999000E+03  -9.999000E+03  -9.999000E+03  -9.999000E+03  -9.999000E+03  -9.999000E+03  -9.999000E+03  -9.999000E+03  -9.999000E+03  -9.999000E+03  -9.999000E+03  -9.999000E+03  -9.999000E+03   3.641111E+03   3.759180E+03   3.589278E+03   3.774571E+03   3.649923E+03   3.656585E+03   3.377299E+03   3.381948E+03   3.508542E+03   3.573653E+03   3.741342E+03   3.454437E+03   3.061576E+03   3.195624E+03   3.498428E+03   3.778024E+03   3.839385E+03   3.585137E+03   3.606885E+03   3.786070E+03  -9.999000E+03  -9.999000E+03  -9.999000E+03
  -9.999000E+03  -9.999000E+03  -9.999000E+03  -9.999000E+03  -9.999000E+03  -9.999000E+03  -9.999000E+03  -9.999000E+03  -9.999000E+03  -9.999000E+03  -9.999000E+03  -9.999000E+03  -9.999000E+03  -9.999000E+03  -9.999000E+03  -9.999000E+03  -9.999000E+03  -9.999000E+03  -9.999000E+03  -9.999000E+03  -9.999000E+03  -9.999000E+03  -9.999000E+03  -9.999000E+03  -9.999000E+03  -9.999000E+03  -9.999000E+03  -9.999000E+03   3.631636E+03   3.518529E+03   3.398420E+03   3.665424E+03   3.706939E+03   3.660089E+03   3.480389E+03   3.213472E+03   3.318404E+03   3.472854E+03   3.453993E+03   3.281115E+03   3.040295E+03   3.332995E+03   3.630739E+03   3.773353E+03   3.906826E+03   3.724863E+03   3.727169E+03   3.705444E+03  -9.999000E+03  -9.999000E+03  -9.999000E+03
  -9.999000E+03  -9.999000E+03  -9.999000E+03  -9.999000E+03  -9.999000E+03  -9.999000E+03  -9.999000E+03  -9.999000E+03  -9.999000E+03  -9.999000E+03  -9.999000E+03  -9.999000E+03  -9.999000E+03  -9.999000E+03  -9.999000E+03  -9.999000E+03  -9.999000E+03  -9.999000E+03  -9.999000E+03  -9.999000E+03  -9.999000E+03  -9.999000E+03  -9.999000E+03  -9.999000E+03  -9.999000E+03   3.484210E+03   3.424830E+03   3.459130E+03   3.575206E+03   3.252233E+03   3.305438E+03   3.483128E+03   3.578163E+03   3.535424E+03   3.502260E+03   3.162633E+03   3.294642E+03   3.292535E+03   3.305450E+03   3.183693E+03   3.009370E+03   3.227447E+03   3.524297E+03   3.692708E+03   3.832391E+03   3.746885E+03   3.819374E+03   3.792643E+03  -9.999000E+03  -9.999000E+03  -9.999000E+03
  -9.999000E+03  -9.999000E+03  -9.999000E+03  -9.999000E+03  -9.999000E+03  -9.999000E+03  -9.999000E+03  -9.999000E+03  -9.999000E+03  -9.999000E+03  -9.999000E+03  -9.999000E+03  -9.999000E+03  -9.999000E+03  -9.999000E+03  -9.999000E+03  -9.999000E+03  -9.999000E+03  -9.999000E+03  -9.999000E+03  -9.999000E+03  -9.999000E+03   3.379709E+03   3.450409E+03   3.523459E+03   3.389854E+03   3.264573E+03   3.489930E+03   3.451291E+03   3.158350E+03   3.100149E+03   3.289099E+03   3.512481E+03   3.449301E+03   3.303937E+03   3.067431E+03   3.169079E+03   3.289913E+03   3.321785E+03   3.321449E+03   3.100984E+03   3.017767E+03   3.516412E+03   3.679777E+03   3.736948E+03   3.587314E+03   3.748372E+03   3.826623E+03  -9.999000E+03  -9.999000E+03  -9.999000E+03
  -9.999000E+03  -9.999000E+03  -9.999000E+03  -9.999000E+03  -9.999000E+03  -9.999000E+03  -9.999000E+03  -9.999000E+03  -9.999000E+03  -9.999000E+03  -9.999000E+03  -9.999000E+03  -9.999000E+03  -9.999000E+03  -9.999000E+03  -9.999000E+03  -9.999000E+03  -9.999000E+03  -9.999000E+03  -9.999000E+03  -9.999000E+03  -9.999000E+03   3.491831E+03   3.190493E+03   3.219503E+03   3.095588E+03   3.254371E+03   3.517806E+03   3.459173E+03   3.145335E+03   3.080111E+03   3.549550E+03   3.574571E+03   3.394535E+03   3.109751E+03   3.006217E+03   3.260074E+03   3.468617E+03   3.589205E+03   3.636631E+03   3.089090E+03   2.922264E+03   3.071975E+03   3.127063E+03   3.248281E+03   3.339378E+03   3.661825E+03   3.807836E+03  -9.999000E+03  -9.999000E+03  -9.999000E+03
  -9.999000E+03  -9.999000E+03  -9.999000E+03  -9.999000E+03  -9.999000E+03  -9.999000E+03  -9.999000E+03  -9.999000E+03  -9.999000E+03  -9.999000E+03  -9.999000E+03  -9.999000E+03  -9.999000E+03  -9.999000E+03  -9.999000E+03  -9.999000E+03  -9.999000E+03  -9.999000E+03  -9.999000E+03  -9.999000E+03  -9.999000E+03  -9.999000E+03   3.408300E+03   3.126319E+03   2.997069E+03   3.025475E+03   3.192514E+03   3.551737E+03   3.469185E+03   3.131325E+03   2.981124E+03   3.279039E+03   3.346690E+03   3.210916E+03   3.133967E+03   3.013291E+03   3.360760E+03   3.592183E+03   3.776687E+03   3.508545E+03   2.919666E+03   3.288484E+03   3.563145E+03   3.435960E+03   3.615774E+03   3.761487E+03   3.636515E+03   3.810858E+03  -9.999000E+03  -9.999000E+03  -9.999000E+03
  -9.999000E+03  -9.999000E+03  -9.999000E+03  -9.999000E+03  -9.999000E+03  -9.999000E+03  -9.999000E+03  -9.999000E+03  -9.999000E+03  -9.999000E+03  -9.999000E+03  -9.999000E+03  -9.999000E+03  -9.999000E+03  -9.999000E+03  -9.999000E+03  -9.999000E+03  -9.999000E+03  -9.999000E+03  -9.999000E+03  -9.999000E+03  -9.999000E+03   3.190401E+03   3.080088E+03   2.921748E+03   3.093325E+03   3.205700E+03   3.433645E+03   3.520078E+03   3.224859E+03   2.917866E+03   3.002720E+03   2.964494E+03   3.138375E+03   3.249986E+03   3.032891E+03   3.395826E+03   3.581351E+03   3.611537E+03   3.265276E+03   2.841444E+03   3.463432E+03   3.828430E+03   3.819689E+03   3.739967E+03   3.842459E+03   3.916881E+03   3.853285E+03  -9.999000E+03  -9.999000E+03  -9.999000E+03
  -9.999000E+03  -9.999000E+03  -9.999000E+03  -9.999000E+03  -9.999000E+03  -9.999000E+03  -9.999000E+03  -9.999000E+03  -9.999000E+03  -9.999000E+03  -9.999000E+03  -9.999000E+03  -9.999000E+03  -9.999000E+03  -9.999000E+03  -9.999000E+03  -9.999000E+03  -9.999000E+03  -9.999000E+03  -9.999000E+03  -9.999000E+03   3.051591E+03   3.132629E+03   3.013580E+03   2.853346E+03   3.027624E+03   3.050588E+03   3.190299E+03   3.281942E+03   3.268778E+03   3.031548E+03   2.762112E+03   2.791982E+03   2.975760E+03   3.010550E+03   3.338390E+03   3.704000E+03   3.582613E+03   3.452515E+03   2.803879E+03   2.918056E+03   3.267111E+03   3.450713E+03   3.602608E+03   3.801106E+03   3.846401E+03  -9.999000E+03  -9.999000E+03  -9.999000E+03  -9.999000E+03  -9.999000E+03
  -9.999000E+03  -9.999000E+03  -9.999000E+03  -9.999000E+03  -9.999000E+03  -9.999000E+03  -9.999000E+03  -9.999000E+03  -9.999000E+03  -9.999000E+03  -9.999000E+03  -9.999000E+03  -9.999000E+03  -9.999000E+03  -9.999000E+03  -9.999000E+03  -9.999000E+03  -9.999000E+03  -9.999000E+03  -9.999000E+03   3.127299E+03   3.213483E+03   3.075906E+03   3.012695E+03   2.807313E+03   2.848054E+03   2.920646E+03   3.010532E+03   3.133014E+03   3.076059E+03   3.109371E+03   2.742002E+03   2.689182E+03   2.876042E+03   2.910836E+03   3.519718E+03   3.746250E+03   3.322823E+03   2.973112E+03   2.840456E+03   3.195772E+03   3.413917E+03   3.733305E+03   3.654797E+03   3.700218E+03   3.868096E+03   3.779822E+03  -9.999000E+03  -9.999000E+03  -9.999000E+03  -9.999000E+03
  -9.999000E+03  -9.999000E+03  -9.999000E+03  -9.999000E+03  -9.999000E+03  -9.999000E+03  -9.999000E+03  -9.999000E+03  -9.999000E+03  -9.999000E+03  -9.999000E+03  -9.999000E+03  -9.999000E+03  -9.999000E+03  -9.999000E+03  -9.999000E+03  -9.999000E+03  -9.999000E+03  -9.999000E+03  -9.999000E+03   3.231078E+03   3.088223E+03   3.004141E+03   2.908333E+03   2.776754E+03   2.912311E+03   2.919385E+03   2.919902E+03   2.932245E+03   2.970689E+03   2.948676E+03   2.679088E+03   2.569896E+03   2.806438E+03   2.944421E+03   3.449191E+03   3.684146E+03   3.117930E+03   2.675891E+03   3.160210E+03   3.533213E+03   3.540124E+03   3.496440E+03   3.796814E+03   3.922219E+03   3.702079E+03  -9.999000E+03  -9.999000E+03  -9.999000E+03  -9.999000E+03  -9.999000E+03
  -9.999000E+03  -9.999000E+03  -9.999000E+03  -9.999000E+03  -9.999000E+03  -9.999000E+03  -9.999000E+03  -9.999000E+03  -9.999000E+03  -9.999000E+03  -9.999000E+03  -9.999000E+03  -9.999000E+03  -9.999000E+03  -9.999000E+03  -9.999000E+03  -9.999000E+03  -9.999000E+03  -9.999000E+03   3.157774E+03   3.045145E+03   2.991080E+03   2.921110E+03   2.796198E+03   2.813713E+03   2.950021E+03   3.057902E+03   3.163599E+03   3.175961E+03   3.178015E+03   2.963906E+03   2.699067E+03   2.664418E+03   2.859591E+03   3.030719E+03   3.206793E+03   3.232359E+03   2.776640E+03   2.745021E+03   3.356183E+03   3.737778E+03   3.754109E+03   3.636986E+03   3.651847E+03   3.825780E+03  -9.999000E+03  -9.999000E+03  -9.999000E+03  -9.999000E+03  -9.999000E+03  -9.999000E+03
  -9.999000E+03  -9.999000E+03  -9.999000E+03  -9.999000E+03  -9.999000E+03  -9.999000E+03  -9.999000E+03  -9.999000E+03  -9.999000E+03  -9.999000E+03  -9.999000E+03  -9.999000E+03  -9.999000E+03  -9.999000E+03  -9.999000E+03  -9.999000E+03  -9.999000E+03  -9.999000E+03  -9.999000E+03   3.052217E+03   2.916848E+03   2.866847E+03   2.805687E+03   2.733733E+03   2.877888E+03   3.002760E+03   3.085134E+03   3.174313E+03   3.129523E+03   3.115313E+03   2.792771E+03   2.750343E+03   2.649489E+03   2.898863E+03   2.637203E+03   2.589908E+03   2.638810E+03   2.701584E+03   2.835195E+03   3.268130E+03   3.622697E+03   3.881300E+03   3.942165E+03   3.958149E+03  -9.999000E+03  -9.999000E+03  -9.999000E+03  -9.999000E+03  -9.999000E+03  -9.999000E+03  -9.999000E+03
  -9.999000E+03  -9.999000E+03  -9.999000E+03  -9.999000E+03  -9.999000E+03  -9.999000E+03  -9.999000E+03  -9.999000E+03  -9.999000E+03  -9.999000E+03  -9.999000E+03  -9.999000E+03  -9.999000E+03  -9.999000E+03  -9.999000E+03  -9.999000E+03  -9.999000E+03  -9.999000E+03   3.266461E+03   3.053162E+03   2.999106E+03   2.853275E+03   2.735930E+03   2.775903E+03   2.885916E+03   2.961685E+03   3.120957E+03   3.207499E+03   3.186518E+03   2.939056E+03   2.679041E+03   2.672493E+03   2.530991E+03   2.556860E+03   2.830993E+03   3.162052E+03   3.217744E+03   3.349775E+03   3.263844E+03   3.107660E+03   3.528416E+03   3.749357E+03   3.605922E+03   3.958245E+03  -9.999000E+03  -9.999000E+03  -9.999000E+03  -9.999000E+03  -9.999000E+03  -9.999000E+03  -9.999000E+03
  -9.999000E+03  -9.999000E+03  -9.999000E+03  -9.999000E+03  -9.999000E+03  -9.999000E+03  -9.999000E+03  -9.999000E+03  -9.999000E+03  -9.999000E+03  -9.999000E+03  -9.999000E+03  -9.999000E+03  -9.999000E+03  -9.999000E+03  -9.999000E+03  -9.999000E+03  -9.999000E+03   3.226779E+03   2.979386E+03   2.888099E+03   2.801386E+03   2.673102E+03   2.775979E+03   2.934212E+03   3.053067E+03   3.086148E+03   3.164115E+03   3.136179E+03   2.925020E+03   2.608515E+03   2.568156E+03   2.501148E+03   2.899982E+03   3.173989E+03   3.334175E+03   3.539343E+03   3.735607E+03   3.594492E+03   3.426299E+03   3.421806E+03   3.455403E+03   3.663741E+03   3.821281E+03  -9.999000E+03  -9.999000E+03  -9.999000E+03  -9.999000E+03  -9.999000E+03  -9.999000E+03  -9.999000E+03
  -9.999000E+03  -9.999000E+03  -9.999000E+03  -9.999000E+03  -9.999000E+03  -9.999000E+03  -9.999000E+03  -9.999000E+03  -9.999000E+03  -9.999000E+03  -9.999000E+03  -9.999000E+03  -9.999000E+03  -9.999000E+03  -9.999000E+03  -9.999000E+03  -9.999000E+03   3.271099E+03   3.193408E+03   2.987781E+03   2.883732E+03   2.800735E+03   2.656474E+03   2.789510E+03   2.903166E+03   2.932079E+03   2.992683E+03   3.071281E+03   3.082718E+03   2.829417E+03   2.567804E+03   2.562494E+03   2.437846E+03   3.001338E+03   3.306840E+03   3.430451E+03   3.542908E+03   3.662730E+03   3.788841E+03   3.662267E+03   3.746520E+03   3.801135E+03   3.840288E+03   3.590688E+03  -9.999000E+03  -9.999000E+03  -9.999000E+03  -9.999000E+03  -9.999000E+03  -9.999000E+03  -9.999000E+03
  -9.999000E+03  -9.999000E+03  -9.999000E+03  -9.999000E+03  -9.999000E+03  -9.999000E+03  -9.999000E+03  -9.999000E+03  -9.999000E+03  -9.999000E+03  -9.999000E+03  -9.999000E+03  -9.999000E+03  -9.999000E+03  -9.999000E+03  -9.999000E+03  -9.999000E+03   3.440925E+03   3.334866E+03   3.120424E+03   2.968722E+03   2.804809E+03   2.597194E+03   2.789841E+03   2.807093E+03   2.874761E+03   2.980461E+03   2.983429E+03   3.077691E+03   2.667279E+03   2.550847E+03   2.604057E+03   2.435243E+03   2.917757E+03   3.143209E+03   3.336309E+03   3.493944E+03   3.607444E+03   3.686180E+03   3.663348E+03   3.612000E+03   3.626055E+03   3.820589E+03   3.782253E+03   3.428401E+03  -9.999000E+03  -9.999000E+03  -9.999000E+03  -9.999000E+03  -9.999000E+03  -9.999000E+03
  -9.999000E+03  -9.999000E+03  -9.999000E+03  -9.999000E+03  -9.999000E+03  -9.999000E+03  -9.999000E+03  -9.999000E+03  -9.999000E+03  -9.999000E+03  -9.999000E+03  -9.999000E+03  -9.999000E+03  -9.999000E+03  -9.999000E+03  -9.999000E+03  -9.999000E+03   3.373478E+03   3.084442E+03   2.997120E+03   2.925285E+03   2.821139E+03   2.619723E+03   2.661998E+03   2.807955E+03   2.909337E+03   2.941783E+03   2.877485E+03   3.012339E+03   2.651071E+03   2.517071E+03   2.566882E+03   2.464435E+03   2.996236E+03   3.241079E+03   3.415442E+03   3.437061E+03   3.490272E+03   3.599157E+03   3.603334E+03   3.513341E+03   3.543672E+03   3.676381E+03   3.691440E+03   3.693862E+03  -9.999000E+03  -9.999000E+03  -9.999000E+03  -9.999000E+03  -9.999000E+03  -9.999000E+03
  -9.999000E+03  -9.999000E+03  -9.999000E+03  -9.999000E+03  -9.999000E+03  -9.999000E+03  -9.999000E+03  -9.999000E+03  -9.999000E+03  -9.999000E+03  -9.999000E+03  -9.999000E+03  -9.999000E+03  -9.999000E+03  -9.999000E+03  -9.999000E+03   3.454992E+03   3.336667E+03   2.992600E+03   2.785587E+03   2.835696E+03   2.766367E+03   2.646185E+03   2.543413E+03   2.748972E+03   2.855346E+03   2.819061E+03   2.891924E+03   3.015607E+03   2.634034E+03   2.472119E+03   2.436176E+03   2.604104E+03   2.964174E+03   3.146746E+03   3.277662E+03   3.210282E+03   3.479257E+03   3.503978E+03   3.449536E+03   3.510590E+03   3.467832E+03   3.520746E+03   3.567708E+03   3.802894E+03   3.598165E+03  -9.999000E+03  -9.999000E+03  -9.999000E+03  -9.999000E+03  -9.999000E+03
  -9.999000E+03  -9.999000E+03  -9.999000E+03  -9.999000E+03  -9.999000E+03  -9.999000E+03  -9.999000E+03  -9.999000E+03  -9.999000E+03  -9.999000E+03  -9.999000E+03  -9.999000E+03  -9.999000E+03  -9.999000E+03  -9.999000E+03  -9.999000E+03   3.468961E+03   3.358798E+03   3.025218E+03   2.837942E+03   2.658331E+03   2.620885E+03   2.564567E+03   2.498462E+03   2.532176E+03   2.681210E+03   2.671375E+03   2.877427E+03   2.945100E+03   2.506235E+03   2.394652E+03   2.362989E+03   2.542653E+03   2.803706E+03   2.983441E+03   3.052750E+03   3.222896E+03   3.421071E+03   3.395928E+03   3.381465E+03   3.534544E+03   3.308118E+03   3.467766E+03   3.652593E+03   3.739455E+03  -9.999000E+03  -9.999000E+03  -9.999000E+03  -9.999000E+03  -9.999000E+03  -9.999000E+03
  -9.999000E+03  -9.999000E+03  -9.999000E+03  -9.999000E+03  -9.999000E+03  -9.999000E+03  -9.999000E+03  -9.999000E+03  -9.999000E+03  -9.999000E+03  -9.999000E+03  -9.999000E+03  -9.999000E+03  -9.999000E+03  -9.999000E+03  -9.999000E+03   3.489515E+03   3.318661E+03   3.093714E+03   2.865550E+03   2.789505E+03   2.766275E+03   2.785077E+03   2.655699E+03   2.446354E+03   2.435199E+03   2.670851E+03   2.869550E+03   2.917467E+03   2.457992E+03   2.297940E+03   2.319298E+03   2.605260E+03   2.936616E+03   3.049490E+03   3.165558E+03   3.342461E+03   3.386140E+03   3.234145E+03   3.190260E+03   3.309490E+03   3.539648E+03   3.652882E+03  -9.999000E+03  -9.999000E+03  -9.999000E+03  -9.999000E+03  -9.999000E+03  -9.999000E+03  -9.999000E+03  -9.999000E+03
  -9.999000E+03  -9.999000E+03  -9.999000E+03  -9.999000E+03  -9.999000E+03  -9.999000E+03  -9.999000E+03  -9.999000E+03  -9.999000E+03  -9.999000E+03  -9.999000E+03  -9.999000E+03  -9.999000E+03  -9.999000E+03  -9.999000E+03  -9.999000E+03   3.543133E+03   3.332229E+03   3.075449E+03   2.945867E+03   2.975816E+03   2.821681E+03   2.683534E+03   2.603424E+03   2.529694E+03   2.382257E+03   2.535185E+03   2.768697E+03   2.803702E+03   2.356883E+03   2.239698E+03   2.340909E+03   2.643397E+03   2.895384E+03   3.093079E+03   3.290658E+03   3.401699E+03   3.205076E+03   2.987230E+03   3.198252E+03   3.492087E+03   3.618960E+03   3.612794E+03  -9.999000E+03  -9.999000E+03  -9.999000E+03  -9.999000E+03  -9.999000E+03  -9.999000E+03  -9.999000E+03  -9.999000E+03
  -9.999000E+03  -9.999000E+03  -9.999000E+03  -9.999000E+03  -9.999000E+03  -9.999000E+03  -9.999000E+03  -9.999000E+03  -9.999000E+03  -9.999000E+03  -9.999000E+03  -9.999000E+03  -9.999000E+03  -9.999000E+03  -9.999000E+03  -9.999000E+03   3.529406E+03   3.466677E+03   3.466549E+03   3.227318E+03   3.005964E+03   2.871894E+03   2.777892E+03   2.697659E+03   2.698226E+03   2.495461E+03   2.347655E+03   2.596103E+03   2.711218E+03   2.331525E+03   2.170834E+03   2.316315E+03   2.627558E+03   2.912432E+03   3.097959E+03   3.310713E+03   3.273416E+03   2.946954E+03   2.954416E+03   3.300827E+03   3.476970E+03   3.634894E+03  -9.999000E+03  -9.999000E+03  -9.999000E+03  -9.999000E+03  -9.999000E+03  -9.999000E+03  -9.999000E+03  -9.999000E+03  -9.999000E+03
  -9.999000E+03  -9.999000E+03  -9.999000E+03  -9.999000E+03  -9.999000E+03  -9.999000E+03  -9.999000E+03  -9.999000E+03  -9.999000E+03  -9.999000E+03  -9.999000E+03  -9.999000E+03  -9.999000E+03  -9.999000E+03  -9.999000E+03  -9.999000E+03  -9.999000E+03   3.517296E+03   3.341005E+03   3.082899E+03   3.051517E+03   3.105271E+03   2.957826E+03   2.851994E+03   2.778665E+03   2.600971E+03   2.305151E+03   2.545618E+03   2.667514E+03   2.304596E+03   2.089788E+03   2.322440E+03   2.609262E+03   3.009740E+03   3.206274E+03   3.233812E+03   2.994787E+03   2.719699E+03   3.028721E+03   3.326268E+03   3.497036E+03   3.432120E+03  -9.999000E+03  -9.999000E+03  -9.999000E+03  -9.999000E+03  -9.999000E+03  -9.999000E+03  -9.999000E+03  -9.999000E+03  -9.999000E+03
  -9.999000E+03  -9.999000E+03  -9.999000E+03  -9.999000E+03  -9.999000E+03  -9.999000E+03  -9.999000E+03  -9.999000E+03  -9.999000E+03  -9.999000E+03  -9.999000E+03  -9.999000E+03  -9.999000E+03  -9.999000E+03  -9.999000E+03  -9.999000E+03  -9.999000E+03   3.631029E+03   3.141470E+03   2.854560E+03   2.999701E+03   3.161333E+03   2.981749E+03   2.750329E+03   2.621457E+03   2.532622E+03   2.360566E+03   2.401635E+03   2.601212E+03   2.203898E+03   2.070922E+03   2.347726E+03   2.710534E+03   2.942472E+03   3.122821E+03   3.106578E+03   2.764934E+03   2.673585E+03   3.014412E+03   3.300098E+03   3.478158E+03   3.366119E+03  -9.999000E+03  -9.999000E+03  -9.999000E+03  -9.999000E+03  -9.999000E+03  -9.999000E+03  -9.999000E+03  -9.999000E+03  -9.999000E+03
  -9.999000E+03  -9.999000E+03  -9.999000E+03  -9.999000E+03  -9.999000E+03  -9.999000E+03  -9.999000E+03  -9.999000E+03  -9.999000E+03  -9.999000E+03  -9.999000E+03  -9.999000E+03  -9.999000E+03  -9.999000E+03  -9.999000E+03  -9.999000E+03   3.260681E+03   3.415431E+03   3.097313E+03   2.769261E+03   2.900305E+03   3.029108E+03   3.092698E+03   2.870986E+03   2.627333E+03   2.517820E+03   2.326393E+03   2.242246E+03   2.270608E+03   2.051278E+03   2.070419E+03   2.374825E+03   2.621736E+03   2.790928E+03   3.053521E+03   3.099671E+03   2.665214E+03   2.688726E+03   3.042428E+03   3.301953E+03   3.338269E+03   3.417694E+03  -9.999000E+03  -9.999000E+03  -9.999000E+03  -9.999000E+03  -9.999000E+03  -9.999000E+03  -9.999000E+03  -9.999000E+03  -9.999000E+03