# RIV package for  MODFLOW-NWT, generated by Flopy.
       369         0
       369         0 # stress period 1
         1         4        49       3437.5415       2198.6443       3436.6873
         1         5        49       3414.2175       3691.2021       3413.3635
         1         6        42       3255.6726        1168.549        3255.043
         1         6        48       3335.5986       2376.7952       3334.7446
         1         6        49        3588.409       1740.2313       3587.5547
         1         7        39       3278.6458        715.1536       3278.0134
         1         7        42       3321.9458        2376.966       3321.3164
         1         7        48        3133.154       4203.9297          3132.3
         1         8        38       3186.3015       2087.3633       3185.6694
         1         8        39       3290.3293       492.44623       3289.6973
         1         8        41       3197.1938       2431.9568       3196.5645
         1         8        42       3359.9492       149.84923       3359.3196
         1         8        47       3179.4128       2804.7922       3178.5588
         1         8        48       3151.8044        1390.447       3150.9504
         1         9        38       3257.1243       1976.7013       3256.4922
         1         9        39        3329.032       484.14658       3328.3997
         1         9        41       3138.1995        2338.473       3137.5698
         1         9        42       3254.9485        305.1975       3254.3188
         1         9        46       3227.9739       2889.5227       3227.1196
         1         9        47       3141.8125         3182.82       3140.9583
         1        10        37       3219.8594       2024.0753       3219.2004
         1        10        38        3069.227       5373.7324       3068.5815
         1        10        39       2995.1492       16017.802       2994.4106
         1        10        40       3140.1543       2671.9292       3139.2297
         1        10        41       3256.4434        90.73439       3255.8137
         1        10        42       3046.4575        5021.002        3045.826
         1        10        43       3089.0107       2541.9033       3087.9646
         1        10        44       3012.3884       5345.9497        3011.342
         1        10        45        3089.517        5113.261        3088.471
         1        10        46       3094.3323       16893.156       3093.5178
         1        11        35       3242.3916        504.9148       3241.7327
         1        11        36       3230.0852       2537.8225       3229.4263
         1        11        37         3283.08       737.49945       3282.4211
         1        11        40       3053.8882        2674.376       3052.9636
         1        11        41       2924.5764        8307.445       2923.6494
         1        11        42        2879.861       32023.752       2878.9922
         1        11        43       3123.6123       2751.0286        3122.566
         1        11        46       3449.6626        855.4704         3449.12
         1        11        47       3309.0518        743.3136       3308.5093
         1        12        41       3046.1067       30261.586        3044.864
         1        12        42       3154.9233       1039.6567       3153.7625
         1        13        41       3093.0068        8549.081       3091.5222
         1        14        41       3063.1606        8862.764       3061.6758
         1        15        41       3041.8801        8210.504       3040.3953
         1        16        36       3163.5706       1323.6891       3162.7327
         1        16        41       3010.9543        8275.231       3009.4695
         1        17        30       3159.2607       170.92049       3158.4497
         1        17        31       3101.0603       1309.0498        3100.249
         1        17        36       3068.3691        3867.621       3067.5312
         1        17        41        3102.569       5765.7754       3101.0845
         1        17        42       3018.9216       10738.318       3017.8674
         1        18        31       3081.0227        3414.388       3080.2114
         1        18        36        3007.155       4061.8467       3006.3171
         1        18        41       3090.8594       2000.0317       3089.1904
         1        18        42       2923.6238        29693.65       2922.3645
         1        18        43        3072.699        2378.793       3072.0752
         1        18        44       3127.7869       2503.5645        3127.163
         1        18        45       3249.0051       564.18353       3248.3813
         1        19        25       2997.7908         88.9704       2997.1694
         1        19        31       2982.0354        3601.395        2981.224
         1        19        36       3014.2288       3819.0647       3013.3909
         1        19        41       2921.4348        11050.62       2919.7659
         1        20        25       2922.4697       2566.6614       2921.8484
         1        20        31       2918.7778       3691.8823       2917.9666
         1        20        36       3033.8286       3597.3943       3032.9907
         1        20        41       2843.2131       10368.117        2841.544
         1        21        25       2854.0679       2472.2988       2853.4465
         1        21        31        3032.459        693.7361        3031.648
         1        21        32       2763.0232       3547.1028        2762.212
         1        21        35       3011.4875       3479.1702       3010.6494
         1        21        36       3339.3276        534.1202       3338.4897
         1        21        40       2805.6477      10718.2705       2803.9785
         1        21        41        2919.825       4730.0454       2918.1558
         1        22        25        2808.035       2306.4902       2807.4136
         1        22        26       2848.7456       1341.9612       2848.1543
         1        22        27       2921.3376        769.8751        2920.746
         1        22        32       2742.9133       2493.4282       2742.1023
         1        22        33        2690.093       2034.9591       2689.2817
         1        22        35       2911.7737       3726.1743       2910.9358
         1        22        39       2974.8806       3483.7349       2973.2114
         1        22        40       2842.2246        8225.649       2840.5554
         1        23        25       2777.6392      16036.4375       2776.8535
         1        23        26       2913.0024        792.4081        2912.411
         1        23        27       2920.0767       1201.7563        2919.485
         1        23        33       2570.9207       23639.021        2569.996
         1        23        34        2807.376       329.33893       2806.5378
         1        23        35        2945.359       3757.8416       2944.5208
         1        23        39       2677.6604       11181.187       2675.9915
         1        24        24       2797.4426       1441.6285       2796.2986
         1        24        25        2814.957        4543.824        2813.813
         1        24        33       2665.4993       10568.568       2664.5178
         1        24        34       2860.5286        3447.503       2859.6907
         1        24        35       3031.6565        635.4552       3030.8186
         1        24        38       2778.0657       21252.666         2776.74
         1        24        39       2746.7896       4724.1104       2745.1206
         1        25        24       2734.9775       7255.2983       2733.8335
         1        25        33       2650.7139       6314.6177       2649.5889
         1        25        35       2639.0483        9157.582        2637.303
         1        25        36       2591.7532       11366.063       2590.0078
         1        25        37        2640.655         11055.1       2638.9097
         1        25        38        2702.838       13536.445       2701.6838
         1        25        39       2835.8572       2393.8997       2835.2944
         1        26        23        2737.174       791.54834         2736.03
         1        26        24       2777.1475       5668.8335       2776.0034
         1        26        33       2532.5928       44349.277       2531.0916
         1        26        34       2558.7053        12108.57         2556.96
         1        26        35       2832.8384        2671.755        2831.093
         1        26        39        3264.507        41.81484       3263.9446
         1        26        40       3108.3223       379.81815       3107.7595
         1        27        23       2674.3457       6874.6816       2673.2017
         1        27        24       2777.2236       1485.4163       2776.0796
         1        27        33        2503.257        14789.08        2501.248
         1        28        23       2657.7185       6541.2207       2656.5745
         1        28        33       2439.9556       15133.923       2437.9465
         1        29        23        2598.438         5971.98        2597.294
         1        29        33       2437.3523        12923.79        2435.343
         1        30        23       2620.9668         5951.77       2619.8225
         1        30        31       2517.8699         308.442       2517.1714
         1        30        33        2466.544       13119.725        2464.535
         1        31        23        2647.429       3556.9153        2646.285
         1        31        24       2544.5452      13257.3125        2543.513
         1        31        31        2472.917       3060.3228       2472.2185
         1        31        32       2438.2847       6661.7476       2436.2756
         1        31        33       2606.2134        7704.115       2604.2043
         1        32        21       2659.0989        745.0214        2658.431
         1        32        22       2621.6526       2920.0034       2620.9846
         1        32        23       2565.3345       2660.1472       2564.6665
         1        32        24       2499.5383       10014.133       2498.5618
         1        32        25       2533.5605       2858.6282       2532.2754
         1        32        26       2681.8704       927.26447       2681.3098
         1        32        27       2672.0356        801.3967        2671.475
         1        32        31       2395.4504       2767.9456        2394.752
         1        32        32       2364.6467       38239.062       2363.0894
         1        32        33       2543.3386       2278.3965        2542.753
         1        32        34       2804.3914       2457.2634       2803.8057
         1        32        35       2984.1267       915.30597        2983.541
         1        32        42       3309.4941        6027.865       3308.2185
         1        33        25       2447.7393        8223.066       2446.4543
         1        33        26       2436.4023        28367.68       2435.2988
         1        33        31        2298.738       2991.2446       2298.0398
         1        33        32        2321.475       15935.501        2319.398
         1        33        40       3191.6362        3644.479       3190.3606
         1        33        41       3310.8655        7772.774       3309.5898
         1        33        42        3541.024       1435.5837        3539.748
         1        34        26       2383.8225       10743.447       2382.3574
         1        34        30       2357.6812        67.47168       2356.9827
         1        34        31       2241.1858       40408.508       2239.7979
         1        34        32       2343.0862         5075.63       2341.0088
         1        34        39       2988.6055       6384.7783       2987.3298
         1        34        40       3199.6282        4282.957       3198.3525
         1        35        26       2497.0261       1117.7871        2495.561
         1        35        27       2349.2202       10543.319       2347.7551
         1        35        31       2172.3225       35721.754       2170.9346
         1        35        39       2955.7913        7875.882       2954.5156
         1        36        27       2306.7158       10431.052       2305.2505
         1        36        31        2091.527        55926.28       2089.8884
         1        36        38        2721.075        7998.819       2719.7993
         1        36        39       3030.0964        432.2614       3028.8208
         1        37        27       2362.1316        8737.287       2360.6663
         1        37        30       2206.1382        9298.266       2203.9978
         1        37        31        2073.162        5394.545        2071.022
         1        37        37       2766.3093       1574.3833       2765.0334
         1        37        38        2674.961        5877.169        2673.685
         1        38        27       2327.9585       3529.0833       2326.4934
         1        38        28        2243.814       12163.462       2242.3457
         1        38        30       2053.5183        15106.45        2051.378
         1        38        31       2071.1035       541.85187       2070.5193
         1        38        37       2666.5898         6761.52       2665.3142
         1        38        38        2690.102       166.55943       2688.8264
         1        39        21       2687.0862       3011.0974       2686.2686
         1        39        28         2051.06       10025.966       2049.5886
         1        39        29        2025.499       21075.564       2023.6744
         1        39        30       2056.9075       62539.375       2055.2734
         1        39        31       2335.4722       489.01822        2334.888
         1        39        37        2694.937         1697.32       2693.6614
         1        39        38       2648.5474        5087.994       2647.2717
         1        40        21       2665.0378       3605.1787       2664.2202
         1        40        22       2652.1719       307.21332       2651.3542
         1        40        28       2013.6674        9148.949       2011.1166
         1        40        29       2021.7018        48114.96       2019.6351
         1        40        38       2548.0188       6440.2983        2546.743
         1        41        22         2535.46       3812.7004       2534.6423
         1        41        28       2017.4816       21717.543       2014.9308
         1        41        38       2546.2327        6095.282        2544.957
         1        42        22       2483.9666       3531.9358        2483.149
         1        42        27        2030.602        6659.897       2028.0513
         1        42        28       2172.4275       14127.055       2169.8767
         1        42        38       2552.7312        6341.156       2551.4553
         1        43        22       2407.5115        3590.937        2406.694
         1        43        27       2015.3867        17726.09       2012.8359
         1        43        38        2532.614        6856.697       2531.3381
         1        44        19       2378.0625       1097.6627       2377.2522
         1        44        22       2299.7341       2148.4587       2298.9167
         1        44        23        2298.241        2653.021       2297.4233
         1        44        27       2045.0505       17793.361       2042.4998
         1        44        37       2465.4792       4695.3896       2464.2036
         1        44        38       2568.3887        4560.556        2567.113
         1        45        19       2283.6816       3483.6243       2282.8716
         1        45        23        2267.973       1550.3082       2267.1553
         1        45        24        2169.571       2789.3342       2168.7534
         1        45        27       2043.5863       16817.922       2041.0355
         1        45        34       2418.3914       1990.7819       2417.1157
         1        45        35       2374.2903        7146.193       2373.0144
         1        45        36       2404.6748        7415.861       2403.3992
         1        45        37       2487.1763       3692.0676       2485.9004
         1        46        19        2275.562       4055.5325        2274.752
         1        46        24        2145.927        3544.143       2145.1094
         1        46        26        2245.294       3329.9485       2242.7432
         1        46        27       2025.0232       17602.758       2022.4724
         1        46        32       2316.5515        6987.565        2315.276
         1        46        33       2296.5122        7054.982       2295.2366
         1        46        34        2323.121       7229.4727       2321.8452
         1        47        19       2364.1826       1258.1984       2363.3726
         1        47        20        2266.823       3894.9968        2266.013
         1        47        21       2220.3354       1934.4548       2219.5254
         1        47        24       2110.3406       2577.7434        2109.523
         1        47        25       2098.6772       16796.527        2096.993
         1        47        26        2013.165       19407.883       2010.6143
         1        47        31       2248.7788       8331.9375       2247.5032
         1        47        32       2389.3774       1288.8528       2388.1016
         1        48        20       2242.8225        794.3773        2242.293
         1        48        21       2186.4739       15984.098        2185.694
         1        48        24       2071.2275        563.5635       2070.4102
         1        48        25       2011.0002        80413.38       2009.0071
         1        48        29       2247.7795        884.3513        2246.504
         1        48        30        2225.716        8756.268       2224.4404
         1        48        31       2323.0427       1098.4991        2321.767
         1        49        20       2264.8433       255.60072       2264.3135
         1        49        21       2219.4185        6442.366       2218.6538
         1        49        22         2122.12       5381.8696       2121.1204
         1        49        23       2078.7122        4925.126       2077.7124
         1        49        24       2017.0073       58809.047       2014.9327
         1        49        25       2056.9607       10623.912       2054.3496
         1        49        29       2203.7441        7265.164       2202.4685
         1        50        24        2071.293        67382.54       2069.1807
         1        50        29          2182.7        1816.291        2181.424
         1        50        30       2185.6177        6329.259        2184.342
         1        51        24       2042.3289        6706.353       2039.6049
         1        51        25       2065.5889       14996.494       2062.8647
         1        51        30       2138.0432        8224.863       2136.7676
         1        51        31       2148.4185       321.51947        2147.915
         1        52        25       2021.7577       24029.035       2019.0337
         1        52        30       2128.2554        3378.777       2126.9797
         1        52        31       2111.3687        18195.48       2110.3127
         1        53        22       2085.3687       1929.4968       2084.7666
         1        53        23       2122.7817        2393.553       2122.1797
         1        53        25       1991.8842        55330.17       1989.1514
         1        53        31       2085.4092        9456.839       2084.0205
         1        54        24       2035.5011       2826.7578       2034.8992
         1        54        25       1986.9622       13618.621       1984.2205
         1        54        26       2037.9998        9408.094        2035.258
         1        54        31       2079.4912        7624.013       2078.1025
         1        55        23       2026.3779       620.88403       2025.7759
         1        55        24       1982.1381       25726.555       1980.4662
         1        55        25       1956.9169       24001.258       1954.1752
         1        55        26       2024.9003       13231.303       2022.1584
         1        55        31        2064.955        4809.478       2063.5667
         1        55        32       2062.8433        4615.838       2061.4546
         1        56        23        1970.779       565.60864        1970.177
         1        56        24       1951.2865       70658.805       1949.2372
         1        56        31       2046.9324        9609.949       2045.5438
         1        57        24       1975.9572        22514.28       1973.1528
         1        57        31       2032.5188         8808.37       2031.1301
         1        58        23       1913.3118       27903.748       1910.5074
         1        58        30        2037.334       5647.0835       2035.9454
         1        58        31       2029.5686        3458.501         2028.18
         1        58        33        2019.426       2143.4675       2018.7172
         1        59        22       1935.3785       13493.059       1932.5742
         1        59        23       1902.2004       14397.766       1899.3961
         1        59        30        1999.315          9817.1       1997.9264
         1        59        31       2024.0295       1691.7789       2023.3208
         1        59        32       2010.2249       3450.9004        2009.516
         1        59        33        2024.789        584.7313       2024.0801
         1        60        22       1899.4095        65610.51       1897.3619
         1        60        26       1960.3259        8235.695       1958.6776
         1        60        27        1961.508       27270.717       1959.9194
         1        60        28        1972.901       28046.613       1971.6376
         1        60        29       1973.6024       17927.184       1972.5537
         1        60        30       1993.9738       15210.757        1992.925
         1        60        31        1999.639        2856.314       1998.9302
         1        61        22       1887.2596        23136.83       1884.4082
         1        61        25       1929.2341       13454.354       1927.5857
         1        61        26       1988.2935       1683.2504        1986.645
         1        61        28       1981.5431       16512.428       1980.3344
         1        61        29       1993.7444       3107.6172       1993.0355
         1        62        22       1890.8519        21639.43       1888.0005
         1        62        23        1904.532       4147.6675       1901.6807
         1        62        24       1933.1509       7595.0117       1931.5026
         1        62        25       1981.9275       3867.3987        1980.279
         1        63        23       1889.0939       22580.273       1886.2426
         1        63        24       1907.6958       10169.395       1906.0474
         1        64        23       1883.3049        33496.98        1881.055
         1        64        24       1914.6797       11724.508       1913.0314
         1        65        22       1886.9487       11515.409       1884.0973
         1        65        23        1867.333         66021.1       1865.0831
         1        66        22       1880.2827       5684.8223       1877.4314
         1        66        23       1913.2848        78570.12       1910.7418
         1        67        20       1971.9393       789.77277       1971.2856
         1        67        22         1892.35       22612.496       1889.2133
         1        67        23       1991.6866         9767.49       1988.5537
         1        68        20       1973.5228       2603.4866       1972.8691
         1        68        22       1898.0995       25028.164       1894.9629
         1        69        20       1938.4467       2452.2227        1937.793
         1        69        22       1925.6361       25379.812       1922.4994
         1        69        23       1937.4208       436.57434       1936.8385
         1        69        24        1951.117       1934.6235       1950.5347
         1        70        20       1922.1669       2568.5796       1921.5132
         1        70        22       1897.5286       13584.055       1894.3766
         1        70        23       1918.3856        90184.49       1916.0901
         1        71        18        1900.423        81.25866       1899.9042
         1        71        19       1888.9266       2078.7817       1888.4078
         1        71        20       1889.4852       2596.2144       1888.8315
         1        71        22       1831.3468       31043.117       1828.1794
         1        72        19        1862.976        645.9549        1862.457
         1        72        20       1865.7113      11613.6455       1865.0413
         1        72        21       1865.5731       10968.258       1862.4058
         1        72        22       1845.0438       37000.418       1841.8765
         1        73        20       1836.6108         3882.92       1835.7734
         1        73        21       1825.6599       30515.648       1822.4926
         1        73        24       1983.8478       391.21594       1983.2728
         1        74        19       1830.5923        6340.324       1827.3357
         1        74        20        1809.241      114806.125       1806.8142
         1        74        21       1799.8661       25675.342       1796.6987
         1        74        22       1843.0781       2092.8853       1842.5032
         1        74        23       1916.9756       2216.4902       1916.4005
         1        74        24       2005.7043        746.4304       2005.1294
         1        75        17       1833.3751        137.4489       1832.8698
         1        75        19       1784.9835       29437.219       1781.7269
         1        75        20       1792.0834        657.4157       1788.8972
         1        75        21       1830.0881        90270.46       1827.7786
         1        75        22       1845.0427        804.0328       1844.4678
         1        76        17       1788.9994       2016.2468        1788.494
         1        76        18       1788.9879       10869.127       1785.7313
         1        76        19       1775.6973       32203.023       1772.4407
         1        77        17       1760.3083       88226.305       1757.9629
         1        77        18       1771.0504       21673.557       1767.7937
         1        77        19       1818.7045       6906.4243       1815.4479
         1        78        16       1748.6205        99049.93       1746.2389
         1        78        17        1757.193       16635.107       1755.2825
         1        79        15       1743.0785        30903.22       1739.7546
         1        79        16        1751.947       6537.5405       1748.6233
         1        79        17       1789.6298       1698.5299       1789.0831
         1        79        18       1818.7057        1903.199        1818.159
         1        79        19       1838.7269       1964.3772       1838.1803
         1        79        20       1860.7946       213.56763       1860.2479
         1        80        12       1777.7423          69.343       1777.2161
         1        80        13       1762.6486       1695.7516       1762.1223
         1        80        14       1742.2213       31703.736       1738.8975
         1        80        15       1742.0785        9756.278       1738.7546
         1        81        13       1725.2928        50383.12       1723.3678
         1        81        14       1724.8995       19329.105       1721.5757
         1        82        11       1703.7595        16969.08       1700.3881
         1        82        12        1705.353        72946.34       1701.9944
         1        82        13       1715.0458       45116.562       1712.6472
         1        83         8        1690.868       1996.5251        1687.454
         1        83         9        1682.878        70911.24       1680.4541
         1        83        10       1696.0532       39867.117       1692.6818
         1        83        11       1712.9637       15912.771       1709.5923
         1        84         6       1681.1238       21510.389       1677.7097
         1        84         7       1674.3711       31076.348        1670.957
         1        84         8        1694.322       32118.012       1690.9081
         1        85         5       1660.1582        37795.09       1656.7441
         1        85         6       1689.2961       14878.452       1685.8821
         1        86         3       1647.9098       20052.057       1644.4958
         1        86         4       1668.7661        33020.79        1665.352
         1        86         5       1717.8339       2100.6917       1714.4198
         1        87         1       1629.8672       34513.844       1626.4531
         1        87         2       1629.9779       31302.041       1626.5638
         1        87         3       1666.6482       17517.338       1663.2341
